Chloroquine
  DSViewer          3D                             0

 22 23  0  0  0  0  0  0  0  0999 V2000
   -0.3180   -0.6420    0.3232 C   0  0  0  0  0  0  0  0  0  1
   -0.1174   -2.0836    0.1568 C   0  0  0  0  0  0  0  0  0  2
    1.0879   -2.5707   -0.0900 C   0  0  0  0  0  0  0  0  0  3
    0.6615    0.1635    0.2558 N   0  0  0  0  0  0  0  0  0  4
    1.9648   -0.2680   -0.0102 C   0  0  0  0  0  0  0  0  0  5
    2.2326   -1.5782   -0.2087 C   0  0  0  0  0  0  0  0  0  6
    3.0564    0.7121   -0.0563 C   0  0  0  0  0  0  0  0  0  7
    3.6107   -1.9530   -0.5207 C   0  0  0  0  0  0  0  0  0  8
    4.5906   -1.0632   -0.5617 C   0  0  0  0  0  0  0  0  0  9
    4.3039    0.3311   -0.3034 C   0  0  0  0  0  0  0  0  0 10
    5.5904    1.4813   -0.3073 Cl  0  0  0  0  0  0  0  0  0 11
    1.1911   -4.0380   -0.1884 N   0  0  0  0  0  0  0  0  0 12
    2.3981   -4.8873   -0.2362 C   0  0  0  0  0  0  0  0  0 13
    1.9387   -6.3576   -0.3753 C   0  0  0  0  0  0  0  0  0 14
    3.2408   -4.7992    1.0778 C   0  0  0  0  0  0  0  0  0 15
    4.6151   -5.5564    0.9688 C   0  0  0  0  0  0  0  0  0 16
    5.7402   -4.6064    0.4283 C   0  0  0  0  0  0  0  0  0 17
    7.0660   -5.2859    0.4091 N   0  0  0  0  0  0  0  0  0 18
    8.1161   -4.2129    0.1543 C   0  0  0  0  0  0  0  0  0 19
    9.5984   -4.6307    0.4038 C   0  0  0  0  0  0  0  0  0 20
    6.9903   -6.3670   -0.6515 C   0  0  0  0  0  0  0  0  0 21
    8.1595   -7.3891   -0.6711 C   0  0  0  0  0  0  0  0  0 22
  1  4  2  0  0  0
  1  2  1  0  0  0
  2  3  2  0  0  0
  3  6  1  0  0  0
  3 12  1  0  0  0
  4  5  1  0  0  0
  5  7  1  0  0  0
  5  6  2  0  0  0
  6  8  1  0  0  0
  7 10  2  0  0  0
  8  9  2  0  0  0
  9 10  1  0  0  0
 10 11  1  0  0  0
 12 13  1  0  0  0
 13 14  1  0  0  0
 13 15  1  0  0  0
 15 16  1  0  0  0
 16 17  1  0  0  0
 17 18  1  0  0  0
 18 19  1  0  0  0
 18 21  1  0  0  0
 19 20  1  0  0  0
 21 22  1  0  0  0
M  END
> <Clean Energy>
19.5596

> <Lysotarcker IC50 uM>
11.1

> <Cytotox IC50 uM>
148.3

> <Active>
1

> <Name 2>
Chloroquine

$$$$
Chlorpromazine
  SciTegic09101421012D

 21 23  0  0  0  0            999 V2000
    7.2767   -8.4910    0.0000 C   0  0
    7.2767   -6.9909    0.0000 N   0  0
    5.9766   -6.2454    0.0000 C   0  0
    5.9766   -4.7454    0.0000 C   0  0
    4.6766   -3.9908    0.0000 C   0  0
    4.6766   -2.4907    0.0000 N   0  0
    5.9766   -1.7452    0.0000 C   0  0
    7.2767   -2.4907    0.0000 C   0  0
    8.5768   -1.7452    0.0000 C   0  0
    8.5768   -0.2452    0.0000 C   0  0
    7.2767    0.5094    0.0000 C   0  0
    5.9766   -0.2452    0.0000 C   0  0
    4.6766    0.5094    0.0000 S   0  0
    3.3856   -0.2452    0.0000 C   0  0
    3.3856   -1.7452    0.0000 C   0  0
    2.0856   -2.4907    0.0000 C   0  0
    0.7855   -1.7452    0.0000 C   0  0
   -0.5146   -2.4907    0.0000 Cl  0  0
    0.7855   -0.2452    0.0000 C   0  0
    2.0856    0.5094    0.0000 C   0  0
    8.5768   -6.2454    0.0000 C   0  0
  1  2  1  0
  2  3  1  0
  2 21  1  0
  3  4  1  0
  4  5  1  0
  5  6  1  0
  6  7  1  0
  6 15  1  0
  7  8  1  0
  7 12  2  0
  8  9  2  0
  9 10  1  0
 10 11  2  0
 11 12  1  0
 12 13  1  0
 13 14  1  0
 14 15  1  0
 14 20  2  0
 15 16  2  0
 16 17  1  0
 17 18  1  0
 17 19  2  0
 19 20  1  0
M  END
> <Name>
Chlorpromazine

> <Lysotarcker IC50 uM>
5.8

> <Cytotox IC50 uM>
20.9

> <Active>
1

> <Name 2>
Chlorpromazine

$$$$
Thioridazine
  SciTegic09101421012D

 25 28  0  0  0  0            999 V2000
    8.5741   -4.6896    0.0000 C   0  0
    8.5741   -6.1896    0.0000 S   0  0
    7.2688   -6.9396    0.0000 C   0  0
    7.2688   -8.4398    0.0000 C   0  0
    5.9733   -9.1898    0.0000 C   0  0
    4.6778   -8.4398    0.0000 C   0  0
    4.6778   -6.9396    0.0000 C   0  0
    5.9733   -6.1896    0.0000 C   0  0
    3.3824   -6.1896    0.0000 N   0  0
    3.3824   -4.6896    0.0000 C   0  0
    2.0772   -3.9495    0.0000 C   0  0
    2.0772   -2.4493    0.0000 C   0  0
    3.3824   -1.6993    0.0000 C   0  0
    3.3824   -0.1993    0.0000 C   0  0
    2.0772    0.5507    0.0000 C   0  0
    0.7817   -0.1993    0.0000 C   0  0
    0.7817   -1.6993    0.0000 N   0  0
   -0.5138   -2.4493    0.0000 C   0  0
    2.0772   -6.9396    0.0000 C   0  0
    2.0772   -8.4398    0.0000 C   0  0
    3.3824   -9.1898    0.0000 S   0  0
    0.7817   -9.1898    0.0000 C   0  0
   -0.5138   -8.4398    0.0000 C   0  0
   -0.5138   -6.9396    0.0000 C   0  0
    0.7817   -6.1896    0.0000 C   0  0
  1  2  1  0
  2  3  1  0
  3  4  1  0
  3  8  2  0
  4  5  2  0
  5  6  1  0
  6  7  2  0
  6 21  1  0
  7  8  1  0
  7  9  1  0
  9 10  1  0
  9 19  1  0
 10 11  1  0
 11 12  1  0
 12 13  1  0
 12 17  1  0
 13 14  1  0
 14 15  1  0
 15 16  1  0
 16 17  1  0
 17 18  1  0
 19 20  1  0
 19 25  2  0
 20 21  1  0
 20 22  2  0
 22 23  1  0
 23 24  2  0
 24 25  1  0
M  END
> <Name>
Thioridazine

> <Lysotarcker IC50 uM>
1.5

> <Cytotox IC50 uM>
11.4

> <Active>
1

> <Name 2>
Thioridazine

$$$$
Aripiprazole
  SciTegic09101421012D

 30 33  0  0  0  0            999 V2000
   -1.1951   -6.3821    0.0000 O   0  0
    0.1174   -5.6322    0.0000 C   0  0
    1.4090   -6.3821    0.0000 N   0  0
    2.7214   -5.6322    0.0000 C   0  0
    2.7214   -4.1322    0.0000 C   0  0
    4.0130   -3.3822    0.0000 C   0  0
    5.3045   -4.1322    0.0000 C   0  0
    5.3045   -5.6322    0.0000 C   0  0
    6.6170   -6.3821    0.0000 O   0  0
    7.9295   -5.6322    0.0000 C   0  0
    9.2211   -6.3821    0.0000 C   0  0
   10.5335   -5.6322    0.0000 C   0  0
   11.8251   -6.3821    0.0000 C   0  0
   13.1376   -5.6322    0.0000 N   0  0
   14.4291   -6.3821    0.0000 C   0  0
   15.7416   -5.6322    0.0000 C   0  0
   15.7416   -4.1322    0.0000 N   0  0
   17.0332   -3.3822    0.0000 C   0  0
   18.3456   -4.1322    0.0000 C   0  0
   19.6372   -3.3822    0.0000 C   0  0
   19.6372   -1.8615    0.0000 C   0  0
   18.3456   -1.1115    0.0000 C   0  0
   18.3456    0.3884    0.0000 Cl  0  0
   17.0332   -1.8615    0.0000 C   0  0
   15.7416   -1.1115    0.0000 Cl  0  0
   14.4291   -3.3822    0.0000 C   0  0
   13.1376   -4.1322    0.0000 C   0  0
    4.0130   -6.3821    0.0000 C   0  0
    1.4090   -3.3822    0.0000 C   0  0
    0.1174   -4.1322    0.0000 C   0  0
  1  2  2  0
  2  3  1  0
  2 30  1  0
  3  4  1  0
  4  5  2  0
  4 28  1  0
  5  6  1  0
  5 29  1  0
  6  7  2  0
  7  8  1  0
  8  9  1  0
  8 28  2  0
  9 10  1  0
 10 11  1  0
 11 12  1  0
 12 13  1  0
 13 14  1  0
 14 15  1  0
 14 27  1  0
 15 16  1  0
 16 17  1  0
 17 18  1  0
 17 26  1  0
 18 19  2  0
 18 24  1  0
 19 20  1  0
 20 21  2  0
 21 22  1  0
 22 23  1  0
 22 24  2  0
 24 25  1  0
 26 27  1  0
 29 30  1  0
M  END
> <Name>
Aripiprazole

> <Lysotarcker IC50 uM>
19.3

> <Cytotox IC50 uM>
24

> <Active>
1

> <Name 2>
Aripiprazole
